class AABBData : BaseShapeData {
	Vec3 Position;
	Vec3 HalfExtents;
}

class AbstractAwardData : TreeNodeBase {
}

class AbstractLeaderboardData : DataContainer {
	string LeaderboardName;
}

class AbstractLocoWaypointData : WaypointData {
	AILocoBaseTaskData BaseTask;
}

class AbstractPersistenceData : Asset {
}

class AbstractPersistentStatRef : DataContainer {
}

class ActionNode : UINodeData {
	int32 ActionKey;
	string[] Params;
	Asset ActionAsset;
	UINodePort In;
	UINodePort Out;
	UINodePort[] DataInputs;
	bool AppendIncomingParams;
}

class AdsrNodeData : AudioGraphNodeData {
	AudioGraphNodePort Trigger;
	AudioGraphNodePort Release;
	AudioGraphNodePort A;
	AudioGraphNodePort D;
	AudioGraphNodePort S;
	AudioGraphNodePort R;
	AudioGraphNodePort Value;
	AudioGraphNodePort Finished;
}

class AdvancedDogTagData : DogTagData {
	string StatCode;
	string StatSID;
	bool IsStatMeasuredInTime;
}

class AdvertisementComponentData : PartComponentData {
	string Identifier;
	string AdTexture;
}

class AdvertisementLevelDescriptionComponent : LevelDescriptionComponent {
	string Identifier;
	AdvertisementZoneMember[] Members;
}

class AeroDynamicPhysicsData : DataContainer {
	Vec3 BodyDrag;
	Vec3 BodyDragOffsetYZ;
	Vec3 BodyDragOffsetXZ;
	Vec3 BodyDragOffsetXY;
}

class AIAimingConstraintsData : DataContainer {
	float MinYaw;
	float MaxYaw;
	float MinPitch;
	float MaxPitch;
}

class AIDifficultyData : GameAIDifficultyData {
	string Name;
	float AccuracyIncreaseTimeModifier;
	float StartAccuracyModifierStanding;
	float StartAccuracyModifierCrouching;
	float FinalAccuracyModifierStanding;
	float FinalAccuracyModifierCrouching;
	float ReadinessReactionTimeMultiplier;
}

class AIEntryData : GameAIEntryData {
	AIVehicleBehaviourData EquipmentType;
	ArmamentData Armament;
	MobilityData Mobility;
	StrengthType StrengthType;
	float ReuseTime;
	bool Forbidden;
	bool HasExposedSoldier;
	bool InterludeOnly;
	bool InvalidForAI;
}

class AiffWriterNodeData : AudioGraphNodeData {
	AudioGraphNodePort In;
	AudioGraphNodePort Start;
	AudioGraphNodePort Stop;
	SoundGraphPluginRef Plugin;
	string FileName;
}

class AILocoComponentData : ComponentData {
	AILocoBinding Binding;
	AILocoVaultBinding VaultBinding;
	AILocoCoverBinding CoverBinding;
	float WantedYaw;
	int32 AnimationEntitySpacePriority;
}

class AimAtOrderEntityData : BFOrderEntityData {
}

class AimerModifierData : Asset {
	float LookSpeedMultiplier;
	bool OnlyInSupportedShooting;
}

class AimingConstraintEntityCommonData : Asset {
	AimingConstraintEntityBinding AimingConstraintsBinding;
	AimingConstraintsData AimingConstraints;
	float DisableAimingConstraintsDelay;
	float ConstraintMoveSpeedMultiplier;
	float ShuffleAnimationThreshold;
	float ShuffleAnimationDelay;
}

class AimingConstraintEntityData : EntityData {
	AimingConstraintEntityCommonData CommonData;
	bool EnabledInProne;
}

class AIProximityReactionsComponentData : ComponentData {
	AIProximityReactionsBinding Binding;
	float MinExplosionImpulseForce;
	float MaxExplosionLookDistance;
	float FireReactionDistance;
	bool Enabled;
}

class AirRadarData : UIPartData {
	float RadarRange;
	float RadarSensitivity;
	float HeatSensitivity;
	UIHudIcon MissileIcon;
	UIHudIcon CenterIcon;
	UIHudIcon FriendlyIcon;
	UIHudIcon EnemyIcon;
	UIHudIcon LaserPaintedIcon;
	UIHudIcon NorthIcon;
	SubScreenData SubScreen;
	UIHudIcon WestIcon;
	UIHudIcon SouthIcon;
	UIHudIcon EastIcon;
	bool TrackLaserPaintedObjects;
	bool TrackOnlyUsedVehicles;
	bool UseCameraComponentTransform;
}

class AirResistanceData : ProcessorData {
	float DragFactor;
}

class AISettingsData : Asset {
	SoundEnvironmentConstantData SoundEnvironmentConstants;
	CoverConstantData CoverConstants;
	DecisionConstantData DecisionConstants;
	PositionEvaluationConstantData PositionEvaluationConstants;
	TimingConstantData TimingConstants;
	DebugConstantData DebugConstants;
	ReadinessLevels ReadinessLevels;
	BehaviourTemplateData DefaultBehaviourTemplate;
	AIVehicleBehaviourData DefaultVehicleType;
}

class AISystemAsset : GameAISystem {
	AIVehicleTypes Behaviours;
	OrderSettings Orders;
	AISettingsData Settings;
}

class AIVehicleBehaviourData : DataContainer {
	string Name;
	string[] Controls;
	string[] Behaviours;
	string[] Goals;
	IntentData[] Intents;
}

class AIVehicleTypes : Asset {
	AIVehicleBehaviourData[] VehicleTypes;
	BehaviourData[] Goals;
	BehaviourData[] Intents;
}

class AIWeaponData : GameAIWeaponData {
	Strengths Strengths;
	float MaxBurstCoolDownTime;
	float LostTargetBurstCoolDownModifier;
	float FinalAccuracyPercentage;
	float AimTransitionFireDelay;
	float MinRange;
	float MaxRange;
	float OptimalRangePercentage;
	ReloadBehavior ReloadBehavior;
	float MinExtraReloadTime;
	float MaxExtraReloadTime;
	float MinBurstCoolDownTime;
	float AimAngularVelocity;
	float InnerInaccurateDistance;
	float AngleToTargetSnap;
	float SweepDistance;
	float SweepTime;
	float WaitTimeBeforeFire;
	BurstLimit BurstLimitNear;
	BurstLimit BurstLimitFar;
	float StartAccuracyPercentage;
	float MinimumAccuracyBeforeFiring;
	float OuterInaccurateDistance;
	float AdditionalMinimumAccuracyAtMinRange;
	float GravityModifier;
	SweepSelectionType SweepType;
	AimOrigin AimOrigin;
	bool UseZoom;
	bool AllowedAgainstImmortals;
	bool AimWhileReloading;
	bool AimHighIndirectPath;
	bool Indirect;
	bool IsMelee;
	bool SweepFirstAttack;
	bool IsBlindFireAllowed;
	bool CanAltAttack;
	bool IsStandStill;
	bool CanSuppress;
	bool UseFromCover;
	bool InaccuracyFollowsTarget;
	bool UseInaccuracyAtCloseRange;
	bool DisableWeaponSway;
	bool IsAiAllowed;
}

class AlignmentData : DataContainer {
	EntryInputActionEnum AlignAction;
	float StopTolerance;
	float Speed;
}

class AllowedVehiclesData : DataContainer {
}

class AlternateCameraViewData : DataContainer {
	Vec3 MeshOffset;
	HudData Hud;
	float FieldOfView;
	float WorldSpaceLockEfficiency;
	RigidMeshAsset Mesh;
	ObjectBlueprint MaskMeshBlueprint;
	float FadeInDuration;
	float FovTransitionTime;
	float BlackDuration;
	InputSuppressionData InputSuppression;
	float ScreenExposureAreaScale;
	float FadeOutDuration;
	bool AllowFieldOfViewScaling;
	bool LockMeshToRenderView;
	bool ToggleViewChange;
	bool UseProfileOptionForToggleViewChange;
	bool FLIREnabled;
	bool FadeToBlack;
}

class AlternateSpawnEntityData : SpatialEntityData {
	TeamId Team;
	float Priority;
	bool Enabled;
}

class AmmoCrateEntityData : GameEntityData {
	MapMarkerEntityData Marker;
	StaticModelEntityData Model;
	float RefillDelay;
	float Radius;
	bool EnableReplenish;
}

class AndEntityData : EntityData {
	Realm Realm;
	bool In1;
	bool In2;
}

class AnimatedCameraData : CameraData {
	SkeletonAsset Skeleton;
	string CameraBone;
	string FovBone;
}

class AnimatedDestructionComponentData : AntAnimatableComponentData {
}

class AnimatedDriverEntityData : GameEntityData {
	LinearTransform InputTransform;
	AntRef VehicleBoost;
	AntRef VehicleSpeed;
	AntRef VehicleMovementState;
	AntRef VehicleClutch;
	AntRef VehicleBrake;
	float MovementStateStandThreshold;
	NormalizeSettings Yaw;
	NormalizeSettings Roll;
	NormalizeSettings Pitch;
	bool DelayAnimationWheelTransform;
}

class AnimatedPointCloudAsset : Asset {
}

class AnimatedPointCloudComponentData : ComponentData {
	AnimatedPointCloudAsset PointCloud;
	float ExternalTime;
	bool StartPaused;
}

class AnimatedPointCloudEntityData : EntityData {
	Realm Realm;
	AnimatedPointCloudAsset PointCloud;
	float ExternalTime;
	bool StartPaused;
}

class AnimatedSkeletonDatabase : DataContainer {
	RagdollAsset[] Ragdolls;
	AnimatedSkeletonDatabaseItem[] Items;
}

class AnimatedTransformEntityData : EntityData {
	AntRef Animatable;
	float ExternalTime;
	AntRef Controller;
	string BoneName;
}

class AnimationControlledStateData : CharacterStateData {
	float UpNormalTolerance;
}

class AnimationEnumerationChoiceEntityData : EntityData {
	Realm Realm;
	int32 Value;
}

class AnimationEnumerationEntityData : EntityData {
	Realm Realm;
	AntEnumeration AntEnum;
}

class AnimationSignalEntityData : EntityData {
	Realm Realm;
	AntRef Signal;
	AntRef IntGameState;
	AntRef FloatGameState;
	int32 ValueInt;
	float ValueFloat;
	bool Reset;
	bool Continuous;
}

class AnimationSpawnTemplate : DataContainer {
	AntEnumeration RunStyle;
}

class AnimationTurretRotationComponentData : ComponentData {
	TurretRotationInfo[] Rotations;
	int32 SoldierBaseIndex;
	bool UseVehicleWorldTransform;
	bool OutputWorldTransform;
}

class AntAnimatableComponentData : ComponentData {
	Realm Realm;
	SubRealm SubRealm;
	AntAnimationHandlerData AnimationData;
	SkinnedMeshAsset Mesh;
	bool AutoActivate;
	bool AnimationControlledFromStart;
	bool ForceDisableCulling;
}

class AntAnimationSetAsset : Asset {
	SkeletonAsset SkeletonAsset;
	int32 ActorAssetIndex;
	int32[] ClipAssetIndices;
	int32[] LoopingClipAssetIndices;
	int32 SceneOpMatrixAssetIndex;
	bool UseTraj2Ref;
	bool AllowAnimationCulling;
}

class AntDrivenComponentData : ComponentData {
	AnimationDrivenBinding CharacterGameState;
}

class AntEnumeration : DataContainer {
	AntRef AntAsset;
	int32 Value;
}

class AntEventEntityData : GameEntityData {
	AntEventData[] OnEnterEvents;
	AntEventData[] OnUpdateEvents;
	AntEventData[] OnLeaveEvents;
	bool SendAsPlayerEvent;
	bool AutoActivate;
}

class AntInteractionData : GameEntityData {
	AntInteractionBinding AntBindings;
}

class AntiRollBar : DataContainer {
	float Stiffness;
	float TorqueActivationLimit;
}

class AntMemorySettings : DataContainer {
	int32 RTPoolLayersControllers;
	int32 RTPoolStateflowControllers;
	int32 RTPoolStateflowNodeControllers;
	int32 RTPoolTransitionControllers;
	int32 RTPoolClipControllers;
	int32 RTPoolChooserControllers;
	int32 RTPoolLoopingControllers;
	int32 RTPoolTransparentControllers;
}

class AntPackageAsset : Asset {
	string Win32FileName;
	string XePs3FileName;
	AntPackagingType PackagingType;
	guid StreamingGuid;
	uint32 ChunkSize;
}

class AntProjectAsset : Asset {
	AntPackageAsset[] PackageAssets;
	string AntNativeProjectName;
	AntRef SceneOp;
	int32 ProjectId;
}

class AntSettings : DataContainer {
	float DetailedCollisionSpeedLimit;
	float LeanSignalScale;
	float LeanSignalClamp;
	int32 MaxInterpolationSlots;
	int32 MaxSingleBoneInterpolationSlots;
	float ReducedInterpolationDistance;
	float TrajectoryInterpolationDistance;
	float ForceLodDistance;
	int32 MaxAnimatablesPerPoseJob;
	float CheckGiantSoldiers;
	bool ClientEmulatesServer;
	bool UseCameraFov;
	bool UpdateEnable;
	bool EnablePA;
	bool UseWeaponFov;
	bool DisableAnimManagerSceneOps;
	bool DisableAILodFeature;
	bool DisableModelAnimationCulling;
	bool EnableJobs;
	bool ForcePoseUpdate;
	bool RunAsHighPriority;
	bool InterpolatePoses;
	bool AllowVariableTickLength;
	bool EnablePackageCache;
	bool UseHIK;
	bool UpdateLoddingEnable;
	bool BlockOnJobs;
	bool EnableDebugLogFile;
	bool EnablePoseJobs;
	bool UsePA;
}

class AntTrackData : CustomSequenceTrackData {
	AntTrackItemData[] AntTrackItemDatas;
}

class AntTrackItemData : DataContainer {
	AntRef Controller;
	int32 SequenceTrackIndex;
	int32 StartTime;
	uint32 NumTicks;
	bool ResumeAtEnd;
}

class AreaProximityEntityData : EntityData {
	Realm Realm;
	float ProximityDistance;
	UpdatePass UpdatePass;
	bool AutoStart;
}

class AreaTriggerEntityData : TriggerEntityData {
	LinearTransform GeometryTransform;
	AreaTriggerInclude Include;
	float InsideAreaEventRepeatTime;
	float Radius;
	bool UseCharacterEntity;
	bool OneInsideAreaEventPerSoldier;
	bool TriggerOnlyOnLeave;
	bool ResetOnEnable;
	bool TriggerOnLeaveOnDeath;
	bool TriggerOnLeaveOnDisable;
}

class ArmamentData : DataContainer {
	int32 ThreatLength;
	TurretData TurretData;
	bool IsAntiAircraft;
}

class ArmDisarmAwardEntityData : GameEntityData {
}

class ArtilleryStrikeEntityData : GameEntityData {
	MissileEntityData MissileData;
	float MissileSpawnRadius;
	float DurationOfArtilleryStrike;
	float MaxDelayBetweenProjectiles;
	float MinDelayBetweenProjectiles;
	float MaxDelayBetweenStrikes;
	float MinDelayBetweenStrikes;
	float MinRadiusToSoldier;
	float RadiusWhenFollowingSoldier;
	float HeightOffsetWhenFollowingSoldier;
	uint32 NumberOfStrikes;
	uint32 MaxProjectilesPerStrike;
	uint32 MinProjectilesPerStrike;
	bool FollowSoldier;
}

class ArtilleryStrikeWeaponData : WeaponData {
	float MaxStrikeDistance;
	float StrikeRadius;
	float SpawnHeight;
	float MaxRandomSpawnHeight;
	float StrikeCameraOffset;
	float SpawnHeightMultiplier;
	TargetCameraData Camera;
	float AimingCameraHeight;
	float StrikeCameraHeight;
	float AimingCameraOffset;
	float StrikeCameraFov;
	float AimingCameraFov;
	float DelayBeforeAimingCamera;
	float ValidMinDistance;
	float FireCameraTime;
	float StrikeCameraTime;
	float ValidMaxDistance;
	float ValidMaxAngle;
	bool IncreaseSpawnHeightWithDistance;
	bool EnableProjectileTrails;
	bool EnableCameraRotation;
	bool FireProjectileFromWeapon;
}

class AssemblyDescriptorData : InterfaceDescriptorData {
}

class Asset : DataContainer {
	string Name;
}

class AudioGraphAssetParameter : AudioGraphParameter {
}

class AudioGraphData : DataContainer {
	AudioGraphNodeData[] Nodes;
	AudioGraphParameter[] PublicParameters;
	AudioGraphEvent[] PublicEvents;
	AudioGraphAssetParameter[] PublicAssetParameters;
	uint16 PublicValueCount;
	uint16 ValueCount;
}

class AudioGraphEvent : AudioGraphParameter {
}

class AudioGraphNodeData : DataContainer {
}

class AudioGraphNodePortGroup : DataContainer {
}

class AudioGraphParameter : DataContainer {
	float DefaultValue;
	uint32 NameHash;
	uint16 ValueIndex;
}

class AudioLanguage : DataContainer {
	string Name;
	LanguageFormat LanguageMapping;
}

class AudioLanguagesDependancyObject : DataContainer {
	AudioLanguage[] AudioLanguages;
}

class AudioLanguageSetting : DataContainer {
	string Name;
	uint32 NameHash;
	string DisplayName;
	AudioLanguageMapping[] Mappings;
	bool IsDefault;
}

class AudioMaterialDefinitions : Asset {
}

class AudioSettings : DataContainer {
	uint32 WaveCacheSize;
	uint32 WaveCacheHeadroom;
	float WaveCachePruneTimeLimit;
	uint32 WaveCacheRsxSize;
	float WaveCacheRsxPruneTimeLimit;
	uint32 WaveCacheMaxReadIssueCount;
	uint32 WaveCacheMaxReadActiveCount;
	float AudioCoreCpuLoadLimit;
	float AudioCoreCpuLoadRecovery;
	int32 AudioCoreThread;
	int32 AudioCoreMixJobThreadCount;
	int32 AudioCoreMaxMixJobThreadCount;
	uint32 MaxAudibleSoundCount;
	int32 AudioCoreMinProcStageVoicesToGoWide;
	uint32 DelayLineAllocSize;
	uint32 ReverbAllocSize;
	bool AudioCoreMultipleMixJobsEnabled;
}

class AudioSystemAsset : Asset {
	SoundMasterPatchAsset MasterPatch;
	SoundWaveAsset DefaultWave;
	StreamPoolAsset[] StreamPools;
	uint32 SampleRate;
	float SoundSpeed;
	float DopplerFactor;
	SoundTestAsset Tests;
	MixerSystemAsset MixerSystem;
	AudioLanguage[] Languages;
	AudioLanguageSetting[] LanguageSettings;
	AudioLanguage DefaultLanguage;
	SoundScopeData[] Scopes;
	SoundScopeStrategyData[] ScopeStrategies;
	SoundScopeSetupData[] ScopeSetups;
}

class AutoSquadEntityData : GameEntityData {
	SquadId SquadId;
}

class AutoTeamEntityData : GameEntityData {
	uint32 TeamDifferenceToAutoBalance;
	TeamAssignMode TeamAssignMode;
	uint32 PlayerCountNeededToAutoBalance;
	bool ForceIntoSquad;
	bool RotateTeamOnNewRound;
	bool AutoBalance;
}

class AvengerScoringHandlerData : ScoringHandlerData {
	float AvengerKillTimeout;
}

class AwardableTreeBase : TreeBase {
	StatCategoryTreeCollection StatCategoryTreeCollection;
	CriteriaData[] GeneralCriteria;
	bool GeneralStatistics;
}

class AwardAchievementData : AwardData {
}

class AwardData : AbstractAwardData {
	AwardData[] FilteredChildAwards;
	CriteriaData[] Criteria;
	string Code;
	string Description;
	string NameSid;
	AwardKitAssociation KitAssociation;
	string ImageName;
	string ImageSmallName;
	string ImageFancyName;
	string SoundName;
	AwardType Repeat;
	string[] Licenses;
	uint32 MaxRepetitions;
	CriteriaAward[] Dependencies;
	AwardGroup Group;
	StatsMultiplicity Multiplicity;
	CriteriaGateList UnlockGates;
	AwardData ParentAward;
	float Score;
	ScoringBucket Bucket;
	BasicUnlockInfo[] UnlockInfos;
	bool ActiveOnCreation;
	bool Visible;
}

class AwardDataTree : AwardableTreeBase {
	AwardData[] FilteredAwards;
}

class AwardHeaderData : AbstractAwardData {
	AwardGroup Group;
	StatsMultiplicity Multiplicity;
}

class AwardStarData : AwardData {
	AwardStarNameData StarTemplate;
}

class AwardStarNameData : DataContainer {
	AwardStarNameInstance[] NameInstances;
}

class AxesInputActionData : InputActionData {
	InputDeviceAxes Axis;
	bool NormalizeInput;
}

class BandPassFir64NodeData : AudioGraphNodeData {
	AudioGraphNodePort In;
	AudioGraphNodePort Frequency;
	AudioGraphNodePort Bandwidth;
	AudioGraphNodePort Out;
	SoundGraphPluginRef Plugin;
}

class BandPassIir2NodeData : AudioGraphNodeData {
	AudioGraphNodePort In;
	AudioGraphNodePort Frequency;
	AudioGraphNodePort Bandwidth;
	AudioGraphNodePort Out;
	SoundGraphPluginRef Plugin;
}

class BangerEntityData : DynamicGamePhysicsEntityData {
	float[] Scales;
	MeshAsset Mesh;
	ExplosionEntityData Explosion;
	float TimeToLive;
	uint32 DestructiblePartCount;
	bool UseVariableNetworkFrequency;
}

class BangerSpawnImpulseParams : DataContainer {
	float MinHorizontalAngle;
	float MaxHorizontalAngle;
	float MinVerticalAngle;
	float MaxVerticalAngle;
	float MinStrength;
	float MaxStrength;
	float WaterStrengthModifier;
	float LinearDamping;
	float AngularDamping;
}

class BaseEmitterData : ProcessorData {
	EmitterDocument EmitterAsset;
}

class BaseShapeData : GameObjectData {
}

class BaseSkeletonAsset : Asset {
}

class BasicDogTagData : DogTagData {
}

class BehaviourData : UrgencyUserData {
	string Name;
}

class BehaviourTemplateData : GameBehaviourTemplateData {
	float StandProbability;
	float CrouchProbability;
	float TurnAgainstTargetDistance;
	float InvestigateStopDelay;
	float ExplosiveObjectChance;
	uint32 MinAttackBursts;
	uint32 MaxAttackBursts;
	float AttackUrgencyModifier;
	float AltAttackProbability;
	float ReadinessReactionTimeMultiplier;
	UIntRange FireBlindOverBurstCount;
	float CloseRangeAccuracyDistanceOverride;
	float MeleeRange;
	float MeleeMaxTime;
	float MeleeProbability;
	FloatRangeDefaultZero CoverSwitchTime;
	float FireStyleTimeout;
	float FireLeanChance;
	UIntRange FireLeanBurstCount;
	float FireStepOutChance;
	UIntRange FireStepOutBurstCount;
	float FireStepOutSlowChance;
	UIntRange FireStepOutSlowBurstCount;
	float FireStepOutUrgentChance;
	UIntRange FireStepOutUrgentBurstCount;
	float FireStepOutFireFromHipChance;
	UIntRange FireStepOutFireFromHipBurstCount;
	float FireStepOutStandToCrouchChance;
	UIntRange FireStepOutStandToCrouchBurstCount;
	CoverFireType AlwaysInFirePose;
	float FireGrenadeStepOutChance;
	UIntRange FireGrenadeStepOutBurstCount;
	float FireOverChance;
	UIntRange FireOverBurstCount;
	float FireBlindOutChance;
	UIntRange FireBlindOutBurstCount;
	float FireBlindOverChance;
	int32 SuppressingBurstCount;
	float FireGrenadeBlindOverChance;
	UIntRange FireGrenadeBlindOverBurstCount;
	float FireLmgChance;
	UIntRange FireLmgBurstCount;
	float ShotAtFireGrenadeBlindOverChance;
	int32 SuppressingBurstCountMin;
	int32 SuppressingBurstCountMax;
	FloatRange CoverWaitTime;
	float MaxAngleDiffForBlindFire;
	float StrafeToCoverProbablity;
	float MaxSuppressTime;
	float InvestigateVisualTestDist;
	float AlwaysStrafeToCoversWithinDistance;
	float ChargeSurpriseVelocity;
	float ChargeSurpriseNearDistance;
	float ChargeSurpriseFlankedDistance;
	float ShotAtFireBlindOutChance;
	float ShotAtFireBlindOverChance;
	float AccuracyIncreaseTime;
	float TargetStrengthFactor;
	float ReloadBelowPercent;
	float TargetDistanceFactor;
	float SuppressIndirectProbability;
	float TargetDangerFactor;
	float TargetIsAttackingFactor;
	float AccuracyModifierVsNonHumans;
	float AccuracyModifier;
	float SoldierMovementVolumeOverride;
	bool AlwaysUpdate;
	bool LeaveVehicleOnSearchAndDestroyOrder;
	bool ShouldFireThroughSmoke;
	bool AlwaysStrafeToFirstCover;
	bool CanMeleeFromScriptedCover;
	bool AlwaysStrafeToCoversBehindMe;
	bool UseShotAtSettings;
	bool StepBackIfBeingShot;
	bool DisableMissileGravity;
}

class BFAISettingsData : AISettingsData {
	MovementConstantData MovementConstants;
	TurretControlConstantData TurretControlConstants;
	SearchAndDestroyConstantData SearchAndDestroyConstants;
	FollowConstantData FollowConstants;
	CombatConstantData CombatConstants;
}

class BFAISystem : AISystemAsset {
}

class BFOrderEntityData : OrderEntityData {
	bool ForbiddenToFire;
}

class BFServerConfiguration : DataContainer {
	BFServerConfigurationSchedule[] Schedules;
}

class BFServerSettings : SystemSettings {
	string ServerMessage;
	float CTFRoundTimeModifier;
	string ForceTeamForPlayerTag;
	int32 ForceTeamForPlayerTagTeam;
	float NoInteractivityTimeoutTime;
	float NoInteractivityThresholdLimit;
	uint32 NoInteractivityBanRoundCount;
	uint32 TeamKillCountForKick;
	float TeamKillValueForKick;
	float TeamKillValueIncrease;
	float TeamKillValueDecreasePerSecond;
	uint32 TeamKillKickForBan;
	int32 RoundMaxPlayerCount;
	int32 RoundMinPlayerCount;
	int32 RoundLockdownCountdown;
	int32 RoundRestartCountdown;
	int32 RoundWarmupTimeout;
	string BannerUrl;
	string ServerPreset;
	string ServerDescription;
	string ServerAdministrationSettings;
	uint32 GameSize;
	string ServerAdministrationMapRotation;
	string ServerAdministrationMapRotationInformation;
	uint32 ServerAdministrationRoundsPerMap;
	string Spectators;
	string PunkBusterVersion;
	uint32 TeamSwitchImbalanceLimit;
	string GameMod;
	string PingSite;
	string OverrideServerConfigurationStartTime;
	uint32 GunMasterWeaponsPresetIndex;
	int32 ServerConfigurationRefreshInterval;
	int32 DeathmatchFriendZoneFallbackCount;
	VoiceChannel DefaultVoiceChannel;
	bool MapSequencerEnabled;
	bool KickAPlayerOnVIPJoin;
	bool IsManDownRotationEnabled;
	bool IsKillerCameraEnabled;
	bool PremiumStatus;
	bool OverrideAutoBalance;
	bool AutoBalance;
}

class BFTargetEvaluatorComponentData : TargetEvaluatorComponentData {
	TargetEvaluationConstantData Settings;
}

class BigWorldSetting : DataContainer {
	SoundAsset Sound;
	int32 MinDistance;
	int32 MaxDistance;
	float MinDelayTimeInMinutes;
	float MaxDelayTimeInMinutes;
}

class BigWorldSettingsAsset : Asset {
	BigWorldSetting[] Settings;
}

class BinaryLogicNode : UINodeData {
	UINodePort In;
	UINodePort True;
	UINodePort False;
	UIDataSourceInfo DataSourceInfo;
}

class BlazePresenceBackendData : PresenceBackendData {
	MatchmakingSession[] MatchmakingSessions;
	bool UseDemanglerService;
}

class BlazeServerBackendData : ServerBackendData {
	BlazeCreateGameParameters CreateParameters;
	OnlineEnvironmentConsoleUrl ConfigUrl;
}

class Blueprint : EntityBusData {
}

class BlueprintAndVariationPair : Asset {
	Asset BaseAsset;
	ObjectVariation Variation;
}

class BlueprintBundle : Asset {
	Blueprint Blueprint;
	RegistryContainer RegistryContainer;
}

class BlueprintBundleLoaderEntityData : GameEntityData {
}

class BlueprintBundleMetadata : DataContainer {
	string BundlePathName;
	string BundleName;
	string BlueprintName;
}

class BlueprintBundleMetadataContainer : Asset {
	BlueprintContainerItem[] Items;
}

class BlueprintBundleSelectorEntityData : GameEntityData {
	SpawnEntitySelector BlueprintSelector;
}

class BlueprintBundleStateLogicEntityData : GameEntityData {
	string[] BundleNames;
}

class BlueprintContainerItem : DataContainer {
	BlueprintBundleMetadata Metadata;
}

class BoatFloatPhysicsData : HullFloatPhysicsData {
	float FrontRatio;
}

class BoneCollisionComponentData : ComponentData {
	SkeletonCollisionData SkeletonCollisionData;
}

class BoneFakePhysicsData : DataContainer {
	FakePhysicsData FakePhysics;
	string BoneName;
	int32 BoneId;
}

class BoolEntityData : EntityData {
	Realm Realm;
	bool DefaultValue;
}

class BoolHubEntityData : EntityData {
	Realm Realm;
	int32 InputCount;
	int32 InputSelect;
}

class BoolPropertyTrackData : SimplePropertyTrackData {
	bool[] Values;
}

class BoolRecordingData : PropertyRecordingData {
	bool[] Values;
}

class BoolToEventEntityData : EntityData {
	Realm Realm;
	bool Value;
	bool InitalEvent;
}

class BoolUnlockValuePair : UnlockValuePair {
	bool DefaultValue;
	bool UnlockedValue;
}

class BotPriorityConfigData : DataContainer {
	Vec3 DebugColor;
	float Distance;
	int32 Period;
	float AngleOffset;
	bool AppliesToExecution;
	bool AppliesToDecisions;
}

class BoxEvaluatorData : EvaluatorData {
	Vec3 Dimensions;
	Vec3 Pivot;
}

class BoxFloatPhysicsData : FloatPhysicsData {
}

class BreakableControllerComponentData : DestructionControllerComponentData {
	uint32 BreakablePartCount;
	uint32 NetworkIdCount;
}

class BreakableModelEntityData : GamePhysicsEntityData {
	SurfaceShaderBaseAsset DecalVolumeShader;
	float DecalVolumeScaleFactor;
	MeshAsset Mesh;
	uint32 BoneCount;
	EdgeModelLightMapData EdgeModelLightMapData;
}

class BreakablePartComponentData : DestructionPartComponentData {
	uint32 HealthPercentage;
	bool Collapsable;
	bool DestroyNearbyStaticEntities;
}

class BreakableRuinComponentData : ComponentData {
	ObjectBlueprint RuinModel;
}

class BreathControlData : DataContainer {
	float BreathControlTime;
	float BreathControlReleaseTime;
	float BreathControlPenaltyMultiplier;
	float BreathControlPenaltyTimeout;
}

class BulletEntityData : MeshProjectileEntityData {
	float Stamina;
	SoundAsset FlyBySound;
	ExplosionEntityData DudExplosion;
	float Gravity;
	float ImpactImpulse;
	float DetonationTimeVariation;
	float VehicleDetonationRadius;
	float VehicleDetonationActivationDelay;
	float FlyBySoundRadius;
	float FlyBySoundSpeed;
	float FirstFrameTravelDistance;
	float DistributeDamageOverTime;
	float StartDamage;
	float EndDamage;
	float DamageFalloffStartDistance;
	float DamageFalloffEndDistance;
	float TimeToArmExplosion;
	bool HasVehicleDetonation;
	bool InstantHit;
	bool StopTrailEffectOnUnspawn;
}

class BusNodeData : SoundBusData {
	AudioGraphNodePort Out;
	SoundGraphPluginRef VuPlugin;
}

class ByteRasterData : RasterQuadtreeData {
}

class CameraActionData : SimpleMovementActionBaseData {
	CameraMovementActionMode ActionMode;
}

class CameraComponentData : ComponentData {
	Vec3 CameraTransitionPos;
	float FieldOfView;
	float ForceFieldOfView;
	TargetCameraData Camera;
	AlternateCameraViewData AlternateView;
	RegularCameraViewData RegularView;
	float FreezeHeight;
	StanceCameraData StanceData;
	CameraComponentSoundData CameraSoundData;
	SoldierAnimatedCameraData SoldierAnimatedCamera;
	float CameraTransitionTime;
	uint32 MeshParentComponentNumber;
	bool EnableCameraMesh;
	bool ReceiveImpulsesAsThirdPerson;
	bool UseCameraTransition;
	bool AlternateViewEnabled;
	bool IsFirstPerson;
	bool IgnoreOwnerOrientation;
}

class CameraComponentSoundData : DataContainer {
	SoundAsset SwitchToAlternateViewSound;
	SoundAsset SwitchToNormalViewSound;
}

class CameraData : GameObjectData {
	Vec3 OcclusionRayOffset;
	float ShakeFactor;
	float PreFadeTime;
	float FadeTime;
	float FadeWaitTime;
	float SoundListenerRadius;
	ViewFxData ViewFx;
	float NearPlane;
	float ShadowViewDistanceScale;
	float SoundOcclusion;
	bool StayFadedWhileStreaming;
}

class CameraEnterAreaTriggerEntityData : EntityData {
	Realm Realm;
	float TimeTreshold;
	UpdatePass UpdatePass;
	bool AutoStart;
}

class CameraEntityBaseData : SpatialEntityData {
	string NameId;
	int32 Priority;
	bool Enabled;
}

class CameraEntityData : CameraEntityBaseData {
	float Fov;
}

class CameraLoosePartPhysicsData : LoosePartPhysicsData {
	float Scale;
}

class CameraModeAsset : Asset {
}

class CameraParamsComponentData : ComponentData {
	float ViewDistance;
	float NearPlane;
	float SunShadowmapViewDistance;
}

class CameraProximityEvaluatorData : EvaluatorData {
	Vec3 Size;
	Vec3 Offset;
	Vec3 InnerRadiusDirection;
	float InnerRadius;
	float ForwardOffset;
}

class CameraRecoilData : DataContainer {
	float SpringConstant;
	float SpringDamping;
	float SpringMinThresholdAngle;
}

class CameraShakeNodeData : AudioGraphNodeData {
	AudioGraphNodePort Pitch;
	AudioGraphNodePort Yaw;
	AudioGraphNodePort Roll;
}

class CameraTransition : DataContainer {
}

class CancelOrderEntityData : BFOrderEntityData {
}

class CannedScenarioEntityData : EntityData {
	CannedAnimationBinding CannedAnimBinding;
	int32 AnimationEntitySpacePriority;
	bool AlwaysClearEntitySpaceWhenInScenario;
}

class CapturePointEntityData : GameEntityData {
	int32 EnemyTicketLossWhenCaptured;
	int32 MinNrToTakeControl;
	ObjectBlueprint[] FlagTemplates;
	ObjectBlueprint CapturePoint;
	TeamId InitialOwnerTeam;
	float CaptureRadius;
	int32 MaxCaptureMultiplier;
	int32 AreaValue;
	uint32 SpawnMenuListOrdinal;
	AreaValueTeam[] AreaValues;
	int32 TimeToGetControl;
	int32 TimeToLoseControl;
	float ReturnMultiplier;
	int32 OnlyTakeableByTeam;
	float ShowRadius;
	float HideRadius;
	float AddedMultiplierPerPlayer;
	float Modify3DIconVerticalOffset;
	CapturableType CapturableType;
	string IntruderWarningSID;
	bool IsCapturedInUpperSphere;
	bool DisableWhenLosingControl;
	bool LoseControlWhenNotClose;
	bool DisableIfEnemyInside;
	bool IsVisible;
	bool ForceSnap;
	bool UseAreaValuesPerTeam;
	bool IntruderWarning;
	bool ShowOnMinimap;
	bool HoistFlag;
	bool StartAtBottom;
	bool RemoveWhenCaptured;
	bool SeesawCapturing;
}

class CapturePointScoringHandlerData : ScoringHandlerData {
	float SquadCappingBonus;
}

class CellDetailSelectionRule : PackagingRule {
	PackagingDetailLevel Detail;
}

class ChangeReadinessOrderEntityData : BFOrderEntityData {
	ReadinessLevel Pulse;
	ReadinessLevel Minimum;
	bool AllowDecrease;
}

class CharacterAnimationEntityData : EntityData {
	LinearTransform EntitySpaceTransform;
	AntRef Controller;
	float TrackLength;
	float ExternalTime;
	float WarpAnimationBlendTime;
	bool RestoreControllerOnFinish;
}

class CharacterAnimationSpaceEntityData : EntityData {
	Realm Realm;
	AntRef SpacePositionGS;
	AntRef SpaceRotationGS;
	float WarpAnimationBlendTime;
}

class CharacterAsset : CharacterBlueprint {
}

class CharacterBlueprint : ObjectBlueprint {
}

class CharacterCameraComponentData : ComponentData {