class AABBData : BaseShapeData {
	Vec3 Position;
	Vec3 HalfExtents;
}

class AbstractAwardData : TreeNodeBase {
}

class AbstractLeaderboardData : DataContainer {
	string LeaderboardName;
}

class AbstractLocoWaypointData : WaypointData {
	AILocoBaseTaskData BaseTask;
}

class AbstractPersistenceData : Asset {
}

class AbstractPersistentStatRef : DataContainer {
}

class ActionNode : UINodeData {
	int32 ActionKey;
	string[] Params;
	Asset ActionAsset;
	UINodePort In;
	UINodePort Out;
	UINodePort[] DataInputs;
	bool AppendIncomingParams;
}

struct ActionSuppressor {
	EntryInputActionEnum ActionToSuppress;
	float SuppressingValue;
}

enum AddGameBanResponseType {
	AddGameBanResponseType_Success = 0,
	AddGameBanResponseType_Failure = 1,
	AddGameBanResponseType_UserNotFound = 2,
	AddGameBanResponseType_UserCannotBeBanned = 3
}

enum AdministrationEventType {
	AdministrationEventType_Add = 0,
	AdministrationEventType_Remove = 1,
	AdministrationEventType_Clear = 2,
	AdministrationEventType_List = 3,
	AdministrationEventType_Load = 4,
	AdministrationEventType_Save = 5
}

enum AdministrationRestrictionLevel {
	AdministrationRestrictionLevel_Zero = 0,
	AdministrationRestrictionLevel_One = 1,
	AdministrationRestrictionLevel_Two = 2,
	AdministrationRestrictionLevel_Three = 3,
	AdministrationRestrictionLevel_Count = 4
}

class AdsrNodeData : AudioGraphNodeData {
	AudioGraphNodePort Trigger;
	AudioGraphNodePort Release;
	AudioGraphNodePort A;
	AudioGraphNodePort D;
	AudioGraphNodePort S;
	AudioGraphNodePort R;
	AudioGraphNodePort Value;
	AudioGraphNodePort Finished;
}

class AdvancedDogTagData : DogTagData {
	string StatCode;
	string StatSID;
	bool IsStatMeasuredInTime;
}

class AdvertisementComponentData : PartComponentData {
	string Identifier;
	string AdTexture;
}

class AdvertisementLevelDescriptionComponent : LevelDescriptionComponent {
	string Identifier;
	AdvertisementZoneMember[] Members;
}

struct AdvertisementZoneMember {
	string Identifier;
	string Filename;
}

class AeroDynamicPhysicsData : DataContainer {
	Vec3 BodyDrag;
	Vec3 BodyDragOffsetYZ;
	Vec3 BodyDragOffsetXZ;
	Vec3 BodyDragOffsetXY;
}

class AIAimingConstraintsData : DataContainer {
	float MinYaw;
	float MaxYaw;
	float MinPitch;
	float MaxPitch;
}

enum AIAltFireFromAntState {
	AltFireFromAntState_NoForcedFire = 0,
	AltFireFromAntState_Prepare = 1,
	AltFireFromAntState_ForceFire = 2
}

enum AIDeathReactionAnimationType {
	AIDeathReactionAnimationType_1 = 0,
	AIDeathReactionAnimationType_2 = 1,
	AIDeathReactionAnimationType_3 = 2,
	AIDeathReactionAnimationType_4 = 3,
	AIDeathReactionAnimationType_5 = 4,
	AIDeathReactionAnimationType_Count = 5
}

class AIDifficultyData : GameAIDifficultyData {
	string Name;
	float AccuracyIncreaseTimeModifier;
	float StartAccuracyModifierStanding;
	float StartAccuracyModifierCrouching;
	float FinalAccuracyModifierStanding;
	float FinalAccuracyModifierCrouching;
	float ReadinessReactionTimeMultiplier;
}

class AIEntryData : GameAIEntryData {
	AIVehicleBehaviourData EquipmentType;
	ArmamentData Armament;
	MobilityData Mobility;
	StrengthType StrengthType;
	float ReuseTime;
	bool Forbidden;
	bool HasExposedSoldier;
	bool InterludeOnly;
	bool InvalidForAI;
}

class AiffWriterNodeData : AudioGraphNodeData {
	AudioGraphNodePort In;
	AudioGraphNodePort Start;
	AudioGraphNodePort Stop;
	SoundGraphPluginRef Plugin;
	string FileName;
}

enum AIHitReactionAnimationType {
	AIHitReactionAnimationType_1 = 0,
	AIHitReactionAnimationType_2 = 1,
	AIHitReactionAnimationType_3 = 2,
	AIHitReactionAnimationType_4 = 3,
	AIHitReactionAnimationType_5 = 4,
	AIHitReactionAnimationType_Count = 5
}

struct AILocoBaseTaskData {
	AntPoseEnum PoseChangeMovingTowards;
	AntAttentionStateEnum AttentionChangeMovingTowards;
	AntSpeedLevel SpeedChangeMovingTowards;
	AntPoseEnum PoseChange;
	AntAttentionStateEnum AttentionStateChange;
	AntSpeedLevel SpeedLevelChange;
	float Radius;
	bool IsScripted;
}

struct AILocoBinding {
	AntRef LocoTarget;
	AntRef AttentionState;
	AntRef EndPoseEnum;
	AntRef CurrentPoseEnum;
	AntRef EnterExitPoseEnum;
	AntRef RunStyle;
	AntRef TargetWaypointPosition;
	AntRef TargetSpeedLevel;
	AntRef EnableProceduralHeadAim;
}

class AILocoComponentData : ComponentData {
	AILocoBinding Binding;
	AILocoVaultBinding VaultBinding;
	AILocoCoverBinding CoverBinding;
	float WantedYaw;
	int32 AnimationEntitySpacePriority;
}

struct AILocoCoverBinding {
	AntRef PrepareFire;
	AntRef ThrowGrenade;
	AntRef PeekOut;
	AntRef IdleBehindCover;
	AntRef PeekType;
	AntRef CoverTypeEnum;
	AntRef CoverFireStyle;
	AntRef EnterCover;
	AntRef ExitCover;
	AntRef IsCloseCover;
	AntRef DistanceScale;
	AntRef AbsoluteDistance;
	AntRef AngleToNormal;
	AntRef OutAngle;
	AntRef ThreatAngle;
	AntRef StopExitCoverOutAround;
	AntRef EnterStrategy;
	AntRef ExitStyle;
}

struct AILocoCoverTaskData {
	Vec3 WantedPos;
	Vec3 ThreatPosition;
	AntPoseEnum CoverPose;
	float WaitTime;
	CoverPeekType PeekOut;
	float WorldAngle;
	float OffsetLength;
	AntPoseEnum ExitPose;
	float ExitAngle;
	float DistanceToNextWaypoint;
	AntCoverEnum CoverType;
	CoverEnterStrategy EnterStrategy;
	CoverExitStyle ExitStyle;
	CoverFireType PrepareFireType;
	bool ForceExitCover;
	bool UseClientPosition;
}

struct AILocoMoveTaskData {
	Vec3 WantedPos;
	float WorldAngle;
	float WaitTime;
	AntPoseEnum EnterPose;
	AntPoseEnum ExitPose;
	bool OverrideAngle;
	bool UseClientPosition;
}

struct AILocoVaultBinding {
	AntRef Vault;
	AntRef DistanceBeforeVault;
	AntRef HeightBeforeVault;
	AntRef LengthOfVaultableObject;
	AntRef HeightAfterVault;
	AntRef DistanceAfterVault;
	AntRef VaultType;
}

struct AILocoVaultTaskData {
	Vec3 StartPoint;
	float DistanceBeforeVault;
	float HeightBeforeVault;
	float HeightAfterVault;
	float LengthOfVaultableObject;
	float WorldAngle;
	float DistanceAfterVault;
	WaypointVaultType VaultType;
	bool UseClientPosition;
}

class AimAtOrderEntityData : BFOrderEntityData {
}

class AimerModifierData : Asset {
	float LookSpeedMultiplier;
	bool OnlyInSupportedShooting;
}

struct AimingConstraintEntityBinding {
	AntRef ProneAimLimit;
	AntRef ProneAimDistance;
}

class AimingConstraintEntityCommonData : Asset {
	AimingConstraintEntityBinding AimingConstraintsBinding;
	AimingConstraintsData AimingConstraints;
	float DisableAimingConstraintsDelay;
	float ConstraintMoveSpeedMultiplier;
	float ShuffleAnimationThreshold;
	float ShuffleAnimationDelay;
}

class AimingConstraintEntityData : EntityData {
	AimingConstraintEntityCommonData CommonData;
	bool EnabledInProne;
}

struct AimingConstraintsData {
	float MinYaw;
	float MaxYaw;
	float MinPitch;
	float MaxPitch;
}

struct AimingPoseData {
	float MinimumPitch;
	float MaximumPitch;
	float TargetingFov;
	float AimSteadiness;
	float SpeedMultiplier;
	float RecoilMultiplier;
}

enum AimOrigin {
	AoDefault = 0,
	AoCamera = 1,
	AoWeapon = 2
}

struct AIProximityReactionsBinding {
	AntRef AIReaction;
	AntRef AIExplosionReaction;
	AntRef AIExplosionForce;
	AntRef AIStunReaction;
	AntRef AIStunReactionRandomFactor;
	AntRef AIReactionDirection;
	AntRef FireNearby;
	AntRef AimUpAndDown;
	AntRef FocusAimScale;
	AntRef FocusAiming;
	AntRef EnableProceduralHeadAim;
	AntRef KillFromAnimation;
	AntRef PlayerAnimationKill;
	AntRef PlayerInitiatedRagdoll;
}

class AIProximityReactionsComponentData : ComponentData {
	AIProximityReactionsBinding Binding;
	float MinExplosionImpulseForce;
	float MaxExplosionLookDistance;
	float FireReactionDistance;
	bool Enabled;
}

struct AirMissileJammingData {
	float MinTurnSpeed;
	float MaxRadius;
	float MinRadius;
	float Theta;
	float Phi;
	float UpdateJammingPositionTime;
	float MaxTurnSpeed;
	float QuietModeProbability;
	float QuietModeTime;
	float JammingTime;
	float TurnCalculationTime;
	bool EnableAirMissileJamming;
}

class AirRadarData : UIPartData {
	float RadarRange;
	float RadarSensitivity;
	float HeatSensitivity;
	UIHudIcon MissileIcon;
	UIHudIcon CenterIcon;
	UIHudIcon FriendlyIcon;
	UIHudIcon EnemyIcon;
	UIHudIcon LaserPaintedIcon;
	UIHudIcon NorthIcon;
	SubScreenData SubScreen;
	UIHudIcon WestIcon;
	UIHudIcon SouthIcon;
	UIHudIcon EastIcon;
	bool TrackLaserPaintedObjects;
	bool TrackOnlyUsedVehicles;
	bool UseCameraComponentTransform;
}

class AirResistanceData : ProcessorData {
	float DragFactor;
}

class AISettingsData : Asset {
	SoundEnvironmentConstantData SoundEnvironmentConstants;
	CoverConstantData CoverConstants;
	DecisionConstantData DecisionConstants;
	PositionEvaluationConstantData PositionEvaluationConstants;
	TimingConstantData TimingConstants;
	DebugConstantData DebugConstants;
	ReadinessLevels ReadinessLevels;
	BehaviourTemplateData DefaultBehaviourTemplate;
	AIVehicleBehaviourData DefaultVehicleType;
}

enum AIStunReactionAnimationType {
	AIStunReactionAnimationType_1 = 0,
	AIStunReactionAnimationType_2 = 1,
	AIStunReactionAnimationType_3 = 2,
	AIStunReactionAnimationType_4 = 3,
	AIStunReactionAnimationType_5 = 4,
	AIStunReactionAnimationType_Count = 5
}

class AISystemAsset : GameAISystem {
	AIVehicleTypes Behaviours;
	OrderSettings Orders;
	AISettingsData Settings;
}

class AIVehicleBehaviourData : DataContainer {
	string Name;
	string[] Controls;
	string[] Behaviours;
	string[] Goals;
	IntentData[] Intents;
}

class AIVehicleTypes : Asset {
	AIVehicleBehaviourData[] VehicleTypes;
	BehaviourData[] Goals;
	BehaviourData[] Intents;
}

class AIWeaponData : GameAIWeaponData {
	Strengths Strengths;
	float MaxBurstCoolDownTime;
	float LostTargetBurstCoolDownModifier;
	float FinalAccuracyPercentage;
	float AimTransitionFireDelay;
	float MinRange;
	float MaxRange;
	float OptimalRangePercentage;
	ReloadBehavior ReloadBehavior;
	float MinExtraReloadTime;
	float MaxExtraReloadTime;
	float MinBurstCoolDownTime;
	float AimAngularVelocity;
	float InnerInaccurateDistance;
	float AngleToTargetSnap;
	float SweepDistance;
	float SweepTime;
	float WaitTimeBeforeFire;
	BurstLimit BurstLimitNear;
	BurstLimit BurstLimitFar;
	float StartAccuracyPercentage;
	float MinimumAccuracyBeforeFiring;
	float OuterInaccurateDistance;
	float AdditionalMinimumAccuracyAtMinRange;
	float GravityModifier;
	SweepSelectionType SweepType;
	AimOrigin AimOrigin;
	bool UseZoom;
	bool AllowedAgainstImmortals;
	bool AimWhileReloading;
	bool AimHighIndirectPath;
	bool Indirect;
	bool IsMelee;
	bool SweepFirstAttack;
	bool IsBlindFireAllowed;
	bool CanAltAttack;
	bool IsStandStill;
	bool CanSuppress;
	bool UseFromCover;
	bool InaccuracyFollowsTarget;
	bool UseInaccuracyAtCloseRange;
	bool DisableWeaponSway;
	bool IsAiAllowed;
}

class AlignmentData : DataContainer {
	EntryInputActionEnum AlignAction;
	float StopTolerance;
	float Speed;
}

class AllowedVehiclesData : DataContainer {
}

class AlternateCameraViewData : DataContainer {
	Vec3 MeshOffset;
	HudData Hud;
	float FieldOfView;
	float WorldSpaceLockEfficiency;
	RigidMeshAsset Mesh;
	ObjectBlueprint MaskMeshBlueprint;
	float FadeInDuration;
	float FovTransitionTime;
	float BlackDuration;
	InputSuppressionData InputSuppression;
	float ScreenExposureAreaScale;
	float FadeOutDuration;
	bool AllowFieldOfViewScaling;
	bool LockMeshToRenderView;
	bool ToggleViewChange;
	bool UseProfileOptionForToggleViewChange;
	bool FLIREnabled;
	bool FadeToBlack;
}

class AlternateSpawnEntityData : SpatialEntityData {
	TeamId Team;
	float Priority;
	bool Enabled;
}

struct AmmoConfigData {
	int32 MagazineCapacity;
	int32 NumberOfMagazines;
	uint32 TraceFrequency;
	uint32 AmmoPickupMinAmount;
	uint32 AmmoPickupMaxAmount;
	float AutoReplenishDelay;
	int32 AmmoBagPickupAmount;
	float AmmoBagPickupDelayMultiplier;
	bool AutoReplenishMagazine;
}

class AmmoCrateEntityData : GameEntityData {
	MapMarkerEntityData Marker;
	StaticModelEntityData Model;
	float RefillDelay;
	float Radius;
	bool EnableReplenish;
}

class AndEntityData : EntityData {
	Realm Realm;
	bool In1;
	bool In2;
}

struct AngleOfImpactData {
	float Zone12Delimiter;
	float Zone23Delimiter;
	float Zone1Multiplier;
	float Zone2Multiplier;
	float Zone3Multiplier;
	bool Enabled;
}

enum AngleUnit {
	AngleUnit_Radians = 0,
	AngleUnit_Degrees = 1
}

struct Animated1pOnlyWeaponBinding {
	AntRef UndeployFinished;
	AntRef CameraFreeWeight;
	AntRef Deploy1P;
	AntRef HideWeapon1p;
}

struct Animated3pOnlyWeaponBinding {
	AntRef Deploy3P;
	AntRef HideWeapon3p;
}

enum AnimatedAimingEnum {
	AnimatedAimingTwoHanded = 0,
	AnimatedAimingRightHanded = 1,
	AnimatedAimingDisabled = 2
}

class AnimatedCameraData : CameraData {
	SkeletonAsset Skeleton;
	string CameraBone;
	string FovBone;
}

class AnimatedDestructionComponentData : AntAnimatableComponentData {
}

class AnimatedDriverEntityData : GameEntityData {
	LinearTransform InputTransform;
	AntRef VehicleBoost;
	AntRef VehicleSpeed;
	AntRef VehicleMovementState;
	AntRef VehicleClutch;
	AntRef VehicleBrake;
	float MovementStateStandThreshold;
	NormalizeSettings Yaw;
	NormalizeSettings Roll;
	NormalizeSettings Pitch;
	bool DelayAnimationWheelTransform;
}

enum AnimatedFireEnum {
	AnimatedFireAutomatic = 0,
	AnimatedFireSingle = 1,
	AnimatedFireHoldAndRelease = 2,
	AnimatedFireDelayedSingleShot = 3,
	AnimatedFireSimple = 4
}

class AnimatedPointCloudAsset : Asset {
}

struct AnimatedPointCloudAttributeDesc {
	PointCloudAttributeUsage Usage;
	PointCloudAttributeQuantization IFrameQuantization;
	PointCloudAttributeQuantization DFrameQuantization;
}

class AnimatedPointCloudComponentData : ComponentData {
	AnimatedPointCloudAsset PointCloud;
	float ExternalTime;
	bool StartPaused;
}

class AnimatedPointCloudEntityData : EntityData {
	Realm Realm;
	AnimatedPointCloudAsset PointCloud;
	float ExternalTime;
	bool StartPaused;
}

class AnimatedSkeletonDatabase : DataContainer {
	RagdollAsset[] Ragdolls;
	AnimatedSkeletonDatabaseItem[] Items;
}

struct AnimatedSkeletonDatabaseItem {
	SkeletonAsset Asset;
	int32[] Names;
	SkeletonCollisionData SoldierCollision;
	SkeletonCollisionData RagdollCollision;
	RagdollAsset Ragdoll;
	string[] SpecialBones;
	string HipBone;
	string HeadBone;
}

class AnimatedTransformEntityData : EntityData {
	AntRef Animatable;
	float ExternalTime;
	AntRef Controller;
	string BoneName;
}

struct AnimatedWeaponBinding {
	AntRef Deploy;
	AntRef AltDeploy;
	AntRef Undeploy;
	AntRef QuickSwitch;
	AntRef Reload;
	AntRef ReloadShotgun;
	AntRef Fire;
	AntRef FireSingle;
	AntRef FireHoldAndRelease;
	AntRef FireSimple;
	AntRef FirstShotSpawned;
	AntRef BoltAction;
	AntRef PumpAction;
	AntRef MeleeAttack;
	AntRef QuickThrow;
	AntRef QuickThrowType;
	AntRef AimBody;
	AntRef AlwaysAimHead;
	AntRef OneHanded;
	AntRef OneHandedAiming;
	AntRef AimingEnabled;
	AntRef LowerGun;
	AntRef BreathControl;
	AntRef RflType;
	AntRef PstlType;
	AntRef HgrType;
	AntRef ATType;
	AntRef ShgType;
	AntRef LMGType;
	AntRef BagType;
	AntRef SnpType;
	AntRef Zoom;
	AntRef AimBodyWeight;
	AntRef DisableZoomToggleWeight;
	AntRef ZoomParameter;
	AntRef ZoomScaleFactor;
	AntRef Dispersion;
	AntRef AimTargetPosBody;
	AntRef ZoomOutSpeed;
	AntRef ZoomInSpeed;
	AntRef UnDeploySpeed;
	AntRef DeploySpeed;
	AntRef LightEnabled;
	AntRef FireModeChanged;
	AntRef AnimType;
	AntRef GunDown;
	AntRef NumberOfBulletsLeftInGun;
	AntRef BulletsLeftInGun;
	AntRef AbortVehicleDeploy;
	AntRef CurrentProjectileIndex;
	AntRef WeaponActionESIG;
	AntRef IsSprinting;
	AntRef PreparingToBash;
	AntRef JustStartedSprinting;
	AntRef KickBackInIronSight;
	AntRef ZoomingTime;
	AntRef TriggerZoomGunTwitch;
	AntRef WeaponChooserSignal;
	AntRef WeaponClassSignal;
	AntRef OffsetX;
	AntRef OffsetY;
	AntRef OffsetZ;
	AntRef AIAllowFire;
	AntRef AIAltFireFromAnt;
}

struct AnimationConfigurationData {
	AnimationConfigurationShootModuleData ShootModuleData;
	WeaponOffsetData WeaponOffsetModuleData;
	WeaponSpeedData WeaponSpeedModuleData;
}

struct AnimationConfigurationShootModuleData {
	float ZoomedKickbackFactor;
}

class AnimationControlledStateData : CharacterStateData {
	float UpNormalTolerance;
}

struct AnimationDrivenBinding {
	AntRef Velocity;
	AntRef EnableCollision;
}

class AnimationEnumerationChoiceEntityData : EntityData {
	Realm Realm;
	int32 Value;
}

class AnimationEnumerationEntityData : EntityData {
	Realm Realm;
	AntEnumeration AntEnum;
}

class AnimationSignalEntityData : EntityData {
	Realm Realm;
	AntRef Signal;
	AntRef IntGameState;
	AntRef FloatGameState;
	int32 ValueInt;
	float ValueFloat;
	bool Reset;
	bool Continuous;
}

class AnimationSpawnTemplate : DataContainer {
	AntEnumeration RunStyle;
}

class AnimationTurretRotationComponentData : ComponentData {
	TurretRotationInfo[] Rotations;
	int32 SoldierBaseIndex;
	bool UseVehicleWorldTransform;
	bool OutputWorldTransform;
}

class AntAnimatableComponentData : ComponentData {
	Realm Realm;
	SubRealm SubRealm;
	AntAnimationHandlerData AnimationData;
	SkinnedMeshAsset Mesh;
	bool AutoActivate;
	bool AnimationControlledFromStart;
	bool ForceDisableCulling;
}

struct AntAnimatableData {
	AntRef Actor;
	ProceduralAwarenessAntRefs ProceduralAwareness;
	AntRef RightHandEffectorDisableOverride;
	AntRef LeftHandEffectorDisableOverride;
	MasterSkeletonAsset MasterSkeletonAsset;
}

struct AntAnimationHandlerData {
	AntAnimatableData Animatable;
	AntRef RootController;
	LodBinding LodBinding;
	AntPackageAsset[] AntPackageData;
	GameplayBone[] BonesToMirror;
	bool ReportBackFromAnt;
	bool EnableMasterSlaveCopy;
	bool IsProp;
}

class AntAnimationSetAsset : Asset {
	SkeletonAsset SkeletonAsset;
	int32 ActorAssetIndex;
	int32[] ClipAssetIndices;
	int32[] LoopingClipAssetIndices;
	int32 SceneOpMatrixAssetIndex;
	bool UseTraj2Ref;
	bool AllowAnimationCulling;
}

enum AntAttentionStateEnum {
	AntAttentionStateEnum_Relaxed = 0,
	AntAttentionStateEnum_Ready = 1,
	AntAttentionStateEnum_Combat = 2,
	AntAttentionStateEnum_Evasive = 3,
	AntAttentionStateEnum_AntEnumCount = 4,
	AntAttentionStateEnum_NoChange = 5,
	AntAttentionStateEnum_Count = 6,
	AntAttentionStateEnum_Dummy1 = 7
}

enum AntCoverEnum {
	AntCoverEnum_RightCover = 0,
	AntCoverEnum_LeftCover = 1,
	AntCoverEnum_MiddleCover = 2,
	AntCoverEnum_MediumLeftCover = 3,
	AntCoverEnum_MediumRightCover = 4,
	AntCoverEnum_Prone = 5,
	AntCoverEnum_Count = 6
}

enum AntCoverFireType {
	AntCoverFireType_PeekFire = 0,
	AntCoverFireType_FireStepOut = 1,
	AntCoverFireType_FireOver = 2,
	AntCoverFireType_BlindFireAround = 3,
	AntCoverFireType_BlindFireOver = 4,
	AntCoverFireType_FlankedWhileFiring = 8,
	AntCoverFireType_FireStepOutSlow = 10,
	AntCoverFireType_FireStepOutUrgent = 11,
	AntCoverFireType_FireStepOut_Crouched = 12,
	AntCoverFireType_FireLmg = 13,
	AntCoverFireType_FireFromHipStepOut = 14
}

class AntDrivenComponentData : ComponentData {
	AnimationDrivenBinding CharacterGameState;
}

struct AntDynamicAvoidanceBinding {
	AntRef TimeUntilCollision;
	AntRef DistanceUntilCollision;
	AntRef NormalizedVelocity;
	AntRef Speed;
}

enum AntEntryIdEnum {
	AntEntryIdEnum_Humvee_Driver = 0,
	AntEntryIdEnum_Humvee_Gunner = 1,
	AntEntryIdEnum_Humvee_PassengerRearLeft = 2,
	AntEntryIdEnum_Humvee_PassengerRearRight = 3,
	AntEntryIdEnum_F16_Pilot = 4,
	AntEntryIdEnum_SU37_Pilot = 5,
	AntEntryIdEnum_AH6_Pilot = 6,
	AntEntryIdEnum_AH64_Pilot = 7,
	AntEntryIdEnum_AH64_Gunner = 8,
	AntEntryIdEnum_Vodnik_Driver = 9,
	AntEntryIdEnum_Vodnik_Gunner = 10,
	AntEntryIdEnum_Humvee_PassengerFrontRight = 11,
	AntEntryIdEnum_Vodnik_PassengerFrontRight = 12,
	AntEntryIdEnum_Vodnik_PassengerRearRight = 13,
	AntEntryIdEnum_Vodnik_PassengerRearLeft = 14,
	AntEntryIdEnum_VadsGunner = 15,
	AntEntryIdEnum_F18F_Pilot = 16,
	AntEntryIdEnum_F18F_Navigator = 17,
	AntEntryIdEnum_M1A2_Gunner = 18,
	AntEntryIdEnum_M1A2_Driver = 19
}

class AntEnumeration : DataContainer {
	AntRef AntAsset;
	int32 Value;
}

struct AntEventData {
	int32 TagId;
	EventSpec Event;
}

class AntEventEntityData : GameEntityData {
	AntEventData[] OnEnterEvents;
	AntEventData[] OnUpdateEvents;
	AntEventData[] OnLeaveEvents;
	bool SendAsPlayerEvent;
	bool AutoActivate;
}

enum AntHitReactionWeaponType {
	AntHitReactionWeaponType_Pistol = 0,
	AntHitReactionWeaponType_SMG = 1,
	AntHitReactionWeaponType_AssaultRifle = 2,
	AntHitReactionWeaponType_LMG = 3,
	AntHitReactionWeaponType_Shotgun = 4,
	AntHitReactionWeaponType_SniperRifle = 5,
	AntHitReactionWeaponType_Explosion = 6,
	AntHitReactionWeaponType_Flashbang = 7,
	AntHitReactionWeaponType_Melee = 8
}

struct AntInteractionBinding {
	AntRef OtherAnimatableID;
}

class AntInteractionData : GameEntityData {
	AntInteractionBinding AntBindings;
}

class AntiRollBar : DataContainer {
	float Stiffness;
	float TorqueActivationLimit;
}

struct AntiRollBars {
	AntiRollBar Front;
	AntiRollBar Rear;
}

struct AntiSpamConfig {
	float DetectionInterval;
	uint32 DetectionIntervalMaxMessageCount;
	uint32 ServerSideMessageCountTolerance;
	uint32 SecondsBlocked;
	uint32 ServerSideSecondsBlockedTolerance;
	string NotificationSid;
	string StillBlockedSid;
	SoundWaveAsset WarningSound;
}

class AntMemorySettings : DataContainer {
	int32 RTPoolLayersControllers;
	int32 RTPoolStateflowControllers;
	int32 RTPoolStateflowNodeControllers;
	int32 RTPoolTransitionControllers;
	int32 RTPoolClipControllers;
	int32 RTPoolChooserControllers;
	int32 RTPoolLoopingControllers;
	int32 RTPoolTransparentControllers;
}

class AntPackageAsset : Asset {
	string Win32FileName;
	string XePs3FileName;
	AntPackagingType PackagingType;
	guid StreamingGuid;
	uint32 ChunkSize;
}

enum AntPackagingType {
	AntPackagingType_Static = 0,
	AntPackagingType_Chunk = 1,
	AntPackagingType_Bundle = 2,
	AntPackagingType_AnimationSet = 3
}

enum AntPoseEnum {
	AntPoseEnum_Stand = 0,
	AntPoseEnum_Crouch = 1,
	AntPoseEnum_AntEnumCount = 2,
	AntPoseEnum_NoChange = 3,
	AntPoseEnum_Count = 4
}

class AntProjectAsset : Asset {
	AntPackageAsset[] PackageAssets;
	string AntNativeProjectName;
	AntRef SceneOp;
	int32 ProjectId;
}

struct AntRef {
	int32 AssetId;
}

class AntSettings : DataContainer {
	float DetailedCollisionSpeedLimit;
	float LeanSignalScale;
	float LeanSignalClamp;
	int32 MaxInterpolationSlots;
	int32 MaxSingleBoneInterpolationSlots;
	float ReducedInterpolationDistance;
	float TrajectoryInterpolationDistance;
	float ForceLodDistance;
	int32 MaxAnimatablesPerPoseJob;
	float CheckGiantSoldiers;
	bool ClientEmulatesServer;
	bool UseCameraFov;
	bool UpdateEnable;
	bool EnablePA;
	bool UseWeaponFov;
	bool DisableAnimManagerSceneOps;
	bool DisableAILodFeature;
	bool DisableModelAnimationCulling;
	bool EnableJobs;
	bool ForcePoseUpdate;
	bool RunAsHighPriority;
	bool InterpolatePoses;
	bool AllowVariableTickLength;
	bool EnablePackageCache;
	bool UseHIK;
	bool UpdateLoddingEnable;
	bool BlockOnJobs;
	bool EnableDebugLogFile;
	bool EnablePoseJobs;
	bool UsePA;
}

enum AntSpeedLevel {
	AntSpeedLevel_Still = 0,
	AntSpeedLevel_Walk = 1,
	AntSpeedLevel_Jog_DEPRECATED_DO_NOT_USE = 2,
	AntSpeedLevel_Sneak = 3,
	AntSpeedLevel_Run = 4,
	AntSpeedLevel_Sprint = 5,
	AntSpeedLevel_Stairs_Walk_Up = 6,
	AntSpeedLevel_Stairs_Walk_Down = 7,
	AntSpeedLevel_Stairs_Run_Up = 8,
	AntSpeedLevel_Stairs_Run_Down = 9,
	AntSpeedLevel_Stairs_Sprint_Up = 10,
	AntSpeedLevel_Stairs_Sprint_Down = 11,
	AntSpeedLevel_AntEnumCount = 12,
	AntSpeedLevel_NoChange = 13,
	AntSpeedLevel_Count = 14
}

class AntTrackData : CustomSequenceTrackData {
	AntTrackItemData[] AntTrackItemDatas;
}

class AntTrackItemData : DataContainer {
	AntRef Controller;
	int32 SequenceTrackIndex;
	int32 StartTime;
	uint32 NumTicks;
	bool ResumeAtEnd;
}

class AreaProximityEntityData : EntityData {
	Realm Realm;
	float ProximityDistance;
	UpdatePass UpdatePass;
	bool AutoStart;
}

class AreaTriggerEntityData : TriggerEntityData {
	LinearTransform GeometryTransform;
	AreaTriggerInclude Include;
	float InsideAreaEventRepeatTime;
	float Radius;
	bool UseCharacterEntity;
	bool OneInsideAreaEventPerSoldier;
	bool TriggerOnlyOnLeave;
	bool ResetOnEnable;
	bool TriggerOnLeaveOnDeath;
	bool TriggerOnLeaveOnDisable;
}

enum AreaTriggerInclude {
	ATNone = 0,
	ATAll = 1,
	ATPlayers = 2,
	ATAI = 3,
	ATAI_Allies = 4,
	ATAI_Enemies = 5,
	ATPlayersNotInVehicle = 6
}

struct AreaValueTeam {
	int32 AreaValue;
	TeamId Team;
}

class ArmamentData : DataContainer {
	int32 ThreatLength;
	TurretData TurretData;
	bool IsAntiAircraft;
}

class ArmDisarmAwardEntityData : GameEntityData {
}

class ArtilleryStrikeEntityData : GameEntityData {
	MissileEntityData MissileData;
	float MissileSpawnRadius;
	float DurationOfArtilleryStrike;
	float MaxDelayBetweenProjectiles;
	float MinDelayBetweenProjectiles;
	float MaxDelayBetweenStrikes;
	float MinDelayBetweenStrikes;
	float MinRadiusToSoldier;
	float RadiusWhenFollowingSoldier;
	float HeightOffsetWhenFollowingSoldier;
	uint32 NumberOfStrikes;
	uint32 MaxProjectilesPerStrike;
	uint32 MinProjectilesPerStrike;
	bool FollowSoldier;
}

class ArtilleryStrikeWeaponData : WeaponData {
	float MaxStrikeDistance;
	float StrikeRadius;
	float SpawnHeight;
	float MaxRandomSpawnHeight;
	float StrikeCameraOffset;
	float SpawnHeightMultiplier;
	TargetCameraData Camera;
	float AimingCameraHeight;
	float StrikeCameraHeight;
	float AimingCameraOffset;
	float StrikeCameraFov;
	float AimingCameraFov;
	float DelayBeforeAimingCamera;
	float ValidMinDistance;
	float FireCameraTime;
	float StrikeCameraTime;
	float ValidMaxDistance;
	float ValidMaxAngle;
	bool IncreaseSpawnHeightWithDistance;
	bool EnableProjectileTrails;
	bool EnableCameraRotation;
	bool FireProjectileFromWeapon;
}

class AssemblyDescriptorData : InterfaceDescriptorData {
}

class Asset : DataContainer {
	string Name;
}

struct AssetAabbs {
	AxisAlignedBox[] PartAabb;
}

struct AudioCurve {
	AudioCurvePoint[] Points;
	AudioCurveType CurveType;
}

struct AudioCurvePoint {
	float X;
	float Y;
	float K;
}

enum AudioCurveType {
	AudioCurveType_Spline = 0
}

class AudioGraphAssetParameter : AudioGraphParameter {
}

class AudioGraphData : DataContainer {
	AudioGraphNodeData[] Nodes;
	AudioGraphParameter[] PublicParameters;
	AudioGraphEvent[] PublicEvents;
	AudioGraphAssetParameter[] PublicAssetParameters;
	uint16 PublicValueCount;
	uint16 ValueCount;
}

class AudioGraphEvent : AudioGraphParameter {
}

class AudioGraphNodeData : DataContainer {
}

struct AudioGraphNodePort {
	float UnconnectedValue;
	uint16 ValueIndex;
	bool IsConnected;
}

class AudioGraphNodePortGroup : DataContainer {
}

class AudioGraphParameter : DataContainer {
	float DefaultValue;
	uint32 NameHash;
	uint16 ValueIndex;
}

class AudioLanguage : DataContainer {
	string Name;
	LanguageFormat LanguageMapping;
}

struct AudioLanguageMapping {
	AudioLanguage Source;
	AudioLanguage Target;
}

class AudioLanguagesDependancyObject : DataContainer {
	AudioLanguage[] AudioLanguages;
}

class AudioLanguageSetting : DataContainer {
	string Name;
	uint32 NameHash;
	string DisplayName;
	AudioLanguageMapping[] Mappings;
	bool IsDefault;
}

class AudioMaterialDefinitions : Asset {
}

struct AudioObstructionMaterialInfo {
	MaterialContainerPair Material;
	float ObstructionFrequency;
	float GainReduction;
}

class AudioSettings : DataContainer {
	uint32 WaveCacheSize;
	uint32 WaveCacheHeadroom;
	float WaveCachePruneTimeLimit;
	uint32 WaveCacheRsxSize;
	float WaveCacheRsxPruneTimeLimit;
	uint32 WaveCacheMaxReadIssueCount;
	uint32 WaveCacheMaxReadActiveCount;
	float AudioCoreCpuLoadLimit;
	float AudioCoreCpuLoadRecovery;
	int32 AudioCoreThread;
	int32 AudioCoreMixJobThreadCount;
	int32 AudioCoreMaxMixJobThreadCount;
	uint32 MaxAudibleSoundCount;
	int32 AudioCoreMinProcStageVoicesToGoWide;
	uint32 DelayLineAllocSize;
	uint32 ReverbAllocSize;
	bool AudioCoreMultipleMixJobsEnabled;
}

class AudioSystemAsset : Asset {
	SoundMasterPatchAsset MasterPatch;
	SoundWaveAsset DefaultWave;
	StreamPoolAsset[] StreamPools;
	uint32 SampleRate;
	float SoundSpeed;
	float DopplerFactor;
	SoundTestAsset Tests;
	MixerSystemAsset MixerSystem;
	AudioLanguage[] Languages;
	AudioLanguageSetting[] LanguageSettings;
	AudioLanguage DefaultLanguage;
	SoundScopeData[] Scopes;
	SoundScopeStrategyData[] ScopeStrategies;
	SoundScopeSetupData[] ScopeSetups;
}

enum AudioSystemSpeakerSetup {
	FiveDotOne = 6,
	SevenDotOne = 8
}

struct AutoAimData {
	Vec3 AutoAimOuterBoxOffset;
	Vec3 AutoAimOuterBoxExtends;
	Vec3 AutoAimInnerBoxOffset;
	Vec3 AutoAimInnerBoxExtends;
	CharacterPoseType PoseType;
}

class AutoSquadEntityData : GameEntityData {
	SquadId SquadId;
}

class AutoTeamEntityData : GameEntityData {
	uint32 TeamDifferenceToAutoBalance;
	TeamAssignMode TeamAssignMode;
	uint32 PlayerCountNeededToAutoBalance;
	bool ForceIntoSquad;
	bool RotateTeamOnNewRound;
	bool AutoBalance;
}

class AvengerScoringHandlerData : ScoringHandlerData {
	float AvengerKillTimeout;
}

class AwardableTreeBase : TreeBase {
	StatCategoryTreeCollection StatCategoryTreeCollection;
	CriteriaData[] GeneralCriteria;
	bool GeneralStatistics;
}

class AwardAchievementData : AwardData {
}

class AwardData : AbstractAwardData {
	AwardData[] FilteredChildAwards;
	CriteriaData[] Criteria;
	string Code;
	string Description;
	string NameSid;
	AwardKitAssociation KitAssociation;
	string ImageName;
	string ImageSmallName;
	string ImageFancyName;
	string SoundName;
	AwardType Repeat;
	string[] Licenses;
	uint32 MaxRepetitions;
	CriteriaAward[] Dependencies;
	AwardGroup Group;
	StatsMultiplicity Multiplicity;
	CriteriaGateList UnlockGates;
	AwardData ParentAward;
	float Score;
	ScoringBucket Bucket;
	BasicUnlockInfo[] UnlockInfos;
	bool ActiveOnCreation;
	bool Visible;
}

class AwardDataTree : AwardableTreeBase {
	AwardData[] FilteredAwards;
}

enum AwardGroup {
	AwardGroup_Undefined = 0,
	AwardGroup_Ribbons = 1,
	AwardGroup_DogTags = 2,
	AwardGroup_Medals = 3,
	AwardGroup_Star = 4,
	AwardGroup_Mission = 5,
	AwardGroup_LevelComplete = 6,
	AwardGroup_Achievements = 7,
	AwardGroup_LastAwardGroup = 8
}

class AwardHeaderData : AbstractAwardData {
	AwardGroup Group;
	StatsMultiplicity Multiplicity;
}

enum AwardKitAssociation {
	AwardKitAssociation_Undefined = 0,
	AwardKitAssociation_Assault = 1,
	AwardKitAssociation_Engineer = 2,
	AwardKitAssociation_Recon = 3,
	AwardKitAssociation_Support = 4,
	AwardKitAssociation_All = 5,
	AwardKitAssociation_LAST_ITEM = 6
}
